Circuit: * C:\Users\Kanish\Desktop\IIITB_prep_term\LTspice\activity1\amp_2stage\amp_2stage.asc

Warning: Multiple definitions of model "2scr375p" Type: BJT
Warning: Multiple definitions of model "bc857b" Type: BJT
Warning: Multiple definitions of model "bc847c" Type: BJT
Warning: Multiple definitions of model "bc847b" Type: BJT
Direct Newton iteration for .op point succeeded.

Date: Wed Jul 19 06:01:34 2023
Total elapsed time: 0.230 seconds.

tnom = 27
temp = 27
method = modified trap
totiter = 2089
traniter = 2082
tranpoints = 1042
accept = 1042
rejected = 0
matrix size = 18
fillins = 0
solver = Normal
Avg thread counts: 2.3/3.6/3.6/2.3
Matrix Compiler1: 1.09 KB object code size  0.4/0.3/[0.2]
Matrix Compiler2: 1.43 KB object code size  0.2/0.5/[0.1]

