Circuit: * C:\Users\Kanish\Desktop\IIITB_prep_term\LTspice\activity2\voltage_follower\voltage_follower.asc

Warning: Multiple definitions of model "2scr375p" Type: BJT
Warning: Multiple definitions of model "bc857b" Type: BJT
Warning: Multiple definitions of model "bc847c" Type: BJT
Warning: Multiple definitions of model "bc847b" Type: BJT
Direct Newton iteration for .op point succeeded.

Date: Tue Jul 18 06:57:19 2023
Total elapsed time: 0.243 seconds.

tnom = 27
temp = 27
method = modified trap
totiter = 2258
traniter = 2248
tranpoints = 1042
accept = 1042
rejected = 0
matrix size = 6
fillins = 0
solver = Normal
Avg thread counts: 2.2/3.6/3.6/2.2
Matrix Compiler1: 200 bytes object code size  0.1/0.2/[0.1]
Matrix Compiler2: 408 bytes object code size  0.1/0.1/[0.1]

