Circuit: * C:\Users\Kanish\Desktop\IIITB_prep_term\LTspice\activity2\three_stage_amp\amp.asc

Warning: Multiple definitions of model "2scr375p" Type: BJT
Warning: Multiple definitions of model "bc857b" Type: BJT
Warning: Multiple definitions of model "bc847c" Type: BJT
Warning: Multiple definitions of model "bc847b" Type: BJT
Direct Newton iteration for .op point succeeded.

Date: Tue Jul 18 06:53:16 2023
Total elapsed time: 1.889 seconds.

tnom = 27
temp = 27
method = modified trap
totiter = 2245
traniter = 2238
tranpoints = 1118
accept = 1068
rejected = 50
matrix size = 18
fillins = 1
solver = Normal
Avg thread counts: 2.2/3.4/3.4/2.2
Matrix Compiler1: 1.16 KB object code size  0.3/0.4/[0.2]
Matrix Compiler2: 1.47 KB object code size  0.2/0.4/[0.1]

